data_Untitled
_audit_creation_method         'generated by CrystalMaker X for macOS'
_cell_length_a                   4.003380(1)
_cell_length_b                   4.003380(1)
_cell_length_c                   4.003380(1)
_cell_angle_alpha               90.000000(2000)
_cell_angle_beta                90.000000(2000)
_cell_angle_gamma               90.000000(2000)

_symmetry_space_group_name_H-M     'R 3 m'

loop_
_symmetry_equiv_pos_as_xyz
'+x,+y,+z'
'+z,+x,+y'
'+y,+z,+x'
'+y,+x,+z'
'+x,+z,+y'
'+z,+y,+x'

loop_
_atom_site_label
_atom_site_type_symbol
_atom_site_occupancy
_atom_site_fract_x
_atom_site_fract_y
_atom_site_fract_z
 Ba1  Ba 1.0  0.00000000(200000)  0.00000000(200000)  0.00000000(200000)
 O1  O 1.0  0.51600000(900000)  0.51600000(900000)  0.02200000(1200000)
 Ti1  Ti 1.0  0.49900000(1600000)  0.49900000(1600000)  0.49900000(1600000)

