data_Untitled
_audit_creation_method         'generated by CrystalMaker X for macOS'
_cell_length_a                   3.988800(3)
_cell_length_b                   5.685600(7)
_cell_length_c                   5.670900(7)
_cell_angle_alpha               90.000000(0)
_cell_angle_beta                90.000000(0)
_cell_angle_gamma               90.000000(0)

_symmetry_space_group_name_H-M     'A m m 2'

loop_
_symmetry_equiv_pos_as_xyz
'+x,+y,+z'
'-x,-y,+z'
'+x,-y,+z'
'-x,+y,+z'
'+x,1/2+y,1/2+z'
'-x,1/2-y,1/2+z'
'+x,1/2-y,1/2+z'
'-x,1/2+y,1/2+z'

loop_
_atom_site_label
_atom_site_type_symbol
_atom_site_occupancy
_atom_site_fract_x
_atom_site_fract_y
_atom_site_fract_z
_atom_site_U_iso_or_equiv
 Ba1  Ba 1.0  0.00000000(0)  0.00000000(0)  0.00000000(0)  0.00380
 O1  O 1.0  0.00000000(0)  0.00000000(0)  0.48000000(2000000)  0.00380
 O2  O 1.0  0.50000000(0)  0.26000000(3000000)  0.24000000(3000000)  0.00380
 Ti1  Ti 1.0  0.50000000(0)  0.00000000(0)  0.50000000(2000000)  0.00380

