data_Untitled
_audit_creation_method         'generated by CrystalMaker X for macOS'
_cell_length_a                   3.998180(1)
_cell_length_b                   3.998180(1)
_cell_length_c                   4.029540(2)
_cell_angle_alpha               90.000000(0)
_cell_angle_beta                90.000000(0)
_cell_angle_gamma               90.000000(0)

_symmetry_space_group_name_H-M     'P 4 m m'

loop_
_symmetry_equiv_pos_as_xyz
'+x,+y,+z'
'-x,-y,+z'
'-y,+x,+z'
'+y,-x,+z'
'+x,-y,+z'
'-x,+y,+z'
'-y,-x,+z'
'+y,+x,+z'

loop_
_atom_site_label
_atom_site_type_symbol
_atom_site_occupancy
_atom_site_fract_x
_atom_site_fract_y
_atom_site_fract_z
 Ba1  Ba 1.0  0.50000000(0)  0.50000000(0)  0.00410000(0)
 O1  O 1.0  0.00000000(0)  0.50000000(0)  0.44250000(170000)
 O2  O 1.0  0.00000000(0)  0.00000000(0)  0.92900000(500000)
 Ti1  Ti 1.0  0.00000000(0)  0.00000000(0)  0.50700000(400000)

