data_Adamant4CO2H\P4-N\-\529
_audit_creation_date              2018-06-18
_audit_creation_method            'Materials Studio'
_symmetry_space_group_name_H-M    'P4/N'
_symmetry_Int_Tables_number       85
_symmetry_cell_setting            tetragonal
loop_
_symmetry_equiv_pos_as_xyz
  x,y,z
  -x,-y,z
  -y+1/2,x+1/2,z
  y+1/2,-x+1/2,z
  -x+1/2,-y+1/2,-z
  x+1/2,y+1/2,-z
  y,-x,-z
  -y,x,-z
_cell_length_a                    27.4216
_cell_length_b                    27.4216
_cell_length_c                    16.4984
_cell_angle_alpha                 90.0000
_cell_angle_beta                  90.0000
_cell_angle_gamma                 90.0000
loop_
_atom_site_label
_atom_site_type_symbol
_atom_site_fract_x
_atom_site_fract_y
_atom_site_fract_z
_atom_site_U_iso_or_equiv
_atom_site_adp_type
_atom_site_occupancy
C1     C     0.22502   0.27683   0.25361   0.00000  Uiso   1.00
C2     C     0.20080   0.29587   0.17558   0.00000  Uiso   1.00
C3     C     0.22396   0.27314   0.10064   0.00000  Uiso   1.00
O4     O     0.23192   0.22594   0.10729   0.00000  Uiso   1.00
O5     O     0.23295   0.29604   0.03933   0.00000  Uiso   1.00
H6     H     0.19168   0.36379   0.12199   0.00000  Uiso   1.00
H7     H     0.25933   0.28479   0.25395   0.00000  Uiso   1.00
H8     H     0.22389   0.24124   0.25418   0.00000  Uiso   1.00
H9     H     0.24761   0.21557   0.05746   0.00000  Uiso   1.00
C10    C     0.20326   0.35493   0.32525   0.00000  Uiso   1.00
C11    C     0.19895   0.29898   0.32832   0.00000  Uiso   1.00
C12    C     0.22417   0.27846   0.40319   0.00000  Uiso   1.00
O13    O     0.26697   0.29833   0.41815   0.00000  Uiso   1.00
O14    O     0.20716   0.24573   0.44409   0.00000  Uiso   1.00
H15    H     0.14181   0.24935   0.33281   0.00000  Uiso   1.00
H16    H     0.18821   0.36935   0.37246   0.00000  Uiso   1.00
H17    H     0.23756   0.36428   0.32872   0.00000  Uiso   1.00
H18    H     0.27912   0.28354   0.46762   0.00000  Uiso   1.00
C19    C     0.12502   0.35954   0.24573   0.00000  Uiso   1.00
C20    C     0.17925   0.37411   0.24647   0.00000  Uiso   1.00
C21    C     0.18511   0.42935   0.24667   0.00000  Uiso   1.00
O22    O     0.15519   0.45196   0.29656   0.00000  Uiso   1.00
O23    O     0.21556   0.45063   0.20642   0.00000  Uiso   1.00
H24    H     0.23860   0.36245   0.17072   0.00000  Uiso   1.00
H25    H     0.10914   0.37223   0.19790   0.00000  Uiso   1.00
H26    H     0.10831   0.37515   0.29109   0.00000  Uiso   1.00
H27    H     0.16121   0.48664   0.29049   0.00000  Uiso   1.00
C28    C     0.14632   0.28093   0.17525   0.00000  Uiso   1.00
C29    C     0.12063   0.30327   0.24946   0.00000  Uiso   1.00
C30    C     0.06638   0.29128   0.24934   0.00000  Uiso   1.00
O31    O     0.04554   0.29600   0.17784   0.00000  Uiso   1.00
O32    O     0.04396   0.27984   0.31000   0.00000  Uiso   1.00
H33    H     0.12755   0.29664   0.37432   0.00000  Uiso   1.00
H34    H     0.14293   0.24586   0.17552   0.00000  Uiso   1.00
H35    H     0.12987   0.29157   0.12584   0.00000  Uiso   1.00
H36    H     0.01168   0.28648   0.18426   0.00000  Uiso   1.00
C37    C     0.20497   0.35173   0.17254   0.00000  Uiso   1.00
C38    C     0.14485   0.28438   0.32738   0.00000  Uiso   1.00
loop_
_geom_bond_atom_site_label_1
_geom_bond_atom_site_label_2
_geom_bond_distance
_geom_bond_site_symmetry_2
_ccdc_geom_bond_type
C1     C2      1.540   .     S
C1     H7      0.966   .     S
C1     H8      0.976   .     S
C1     C11     1.549   .     S
C2     C3      1.523   .     S
C2     C37     1.537   .     S
C2     C28     1.549   .     S
C3     O4      1.317   .     S
C3     O5      1.216   .     D
O4     H9      0.970   .     S
H6     C37     0.968   .     S
C10    C11     1.540   .     S
C10    H16     0.966   .     S
C10    H17     0.976   .     S
C10    C20     1.549   .     S
C11    C12     1.523   .     S
C11    C38     1.537   .     S
C12    O13     1.317   .     S
C12    O14     1.216   .     D
O13    H18     0.970   .     S
H15    C38     0.968   .     S
C19    C20     1.540   .     S
C19    H25     0.966   .     S
C19    H26     0.976   .     S
C19    C29     1.549   .     S
C20    C21     1.523   .     S
C20    C37     1.537   .     S
C21    O22     1.317   .     S
C21    O23     1.216   .     D
O22    H27     0.970   .     S
H24    C37     0.968   .     S
C28    C29     1.540   .     S
C28    H34     0.966   .     S
C28    H35     0.976   .     S
C29    C30     1.523   .     S
C29    C38     1.537   .     S
C30    O31     1.317   .     S
C30    O32     1.216   .     D
O31    H36     0.970   .     S
H33    C38     0.968   .     S
